<?xml version="1.0" encoding="UTF-8"?>

<!-- generated on 03/08/21 15:27:58 by Eclipse SUMO netedit Version 1.8.0
<configuration xmlns:xsi="http://www.w3.org/2001/XMLSchema-instance" xsi:noNamespaceSchemaLocation="http://sumo.dlr.de/xsd/netconvertConfiguration.xsd">

    <input>
        <sumo-net-file value="D:\Patrick\Dokumente\Studium\02_MASTER\Semester%203\Mini_Projekt\simulator_windows\Assets\StreamingAssets\TrafficSim\SumoNetworks\circuit\circuit.net.xml"/>
    </input>

    <output>
        <output-file value="D:\Patrick\Dokumente\Studium\02_MASTER\Semester%203\Mini_Projekt\simulator_windows\Assets\StreamingAssets\TrafficSim\SumoNetworks\circuit\circuit.net.xml"/>
    </output>

    <processing>
        <geometry.min-radius.fix.railways value="false"/>
        <geometry.max-grade.fix value="false"/>
        <offset.disable-normalization value="true"/>
        <lefthand value="false"/>
    </processing>

    <junctions>
        <no-turnarounds value="true"/>
        <junctions.corner-detail value="5"/>
        <junctions.limit-turn-speed value="5.5"/>
        <rectangular-lane-cut value="false"/>
    </junctions>

    <pedestrian>
        <walkingareas value="false"/>
    </pedestrian>

    <report>
        <aggregate-warnings value="5"/>
    </report>

</configuration>
-->

<net version="1.6" junctionCornerDetail="5" limitTurnSpeed="5.50" xmlns:xsi="http://www.w3.org/2001/XMLSchema-instance" xsi:noNamespaceSchemaLocation="http://sumo.dlr.de/xsd/net_file.xsd">

    <location netOffset="587.42,282.17" convBoundary="0.00,0.00,660.40,972.35" origBoundary="-587.42,-282.17,72.99,690.18" projParameter="!"/>

    <edge id=":I_J1_0" function="internal">
        <lane id=":I_J1_0_0" index="0" speed="13.89" length="3.30" width="3.83" shape="575.65,599.12 575.65,595.82"/>
        <lane id=":I_J1_0_1" index="1" speed="13.89" length="3.30" width="3.75" shape="579.44,599.12 579.44,595.82"/>
        <lane id=":I_J1_0_2" index="2" disallow="truck" speed="13.89" length="3.30" width="3.40" shape="583.02,599.12 583.02,595.82"/>
    </edge>
    <edge id=":I_J1_3" function="internal">
        <lane id=":I_J1_3_0" index="0" speed="13.89" length="3.30" width="3.83" shape="571.57,599.10 571.72,598.13 571.79,597.47 571.82,596.80 571.82,595.82"/>
    </edge>
    <edge id=":I_J2_0" function="internal">
        <lane id=":I_J2_0_0" index="0" speed="13.89" length="8.00" width="3.83" shape="575.66,550.70 575.67,542.70"/>
        <lane id=":I_J2_0_1" index="1" speed="13.89" length="8.00" width="3.75" shape="579.45,550.70 579.46,542.70"/>
        <lane id=":I_J2_0_2" index="2" disallow="truck" speed="13.89" length="8.00" width="3.40" shape="583.03,550.70 583.03,542.70"/>
    </edge>
    <edge id=":O_J1_0" function="internal">
        <lane id=":O_J1_0_0" index="0" speed="13.89" length="3.00" width="3.83" shape="603.15,703.08 603.09,706.08"/>
    </edge>
    <edge id=":O_J1_1" function="internal">
        <lane id=":O_J1_1_0" index="0" speed="13.89" length="3.00" width="3.83" shape="599.25,703.08 599.26,706.08"/>
        <lane id=":O_J1_1_1" index="1" speed="13.89" length="3.00" width="3.75" shape="595.46,703.08 595.47,706.08"/>
        <lane id=":O_J1_1_2" index="2" disallow="truck" speed="13.89" length="3.00" width="3.40" shape="591.89,703.08 591.89,706.08"/>
    </edge>
    <edge id=":O_J2_0" function="internal">
        <lane id=":O_J2_0_0" index="0" speed="13.89" length="8.00" width="3.83" shape="599.26,748.42 599.25,756.42"/>
        <lane id=":O_J2_0_1" index="1" speed="13.89" length="8.00" width="3.75" shape="595.47,748.42 595.46,756.42"/>
        <lane id=":O_J2_0_2" index="2" disallow="truck" speed="13.89" length="8.00" width="3.40" shape="591.89,748.42 591.89,756.42"/>
    </edge>

    <edge id="I_E0" from="I_J0" to="I_J1" priority="-1" shape="514.58,598.62 514.99,604.57 516.02,610.10 518.51,615.89 522.16,620.99 527.03,624.81 532.68,627.29 537.47,628.06 542.47,628.37 547.60,628.18 554.23,626.47 560.58,622.67 565.94,617.92 569.71,612.16 572.16,606.10 573.36,600.03 574.12,595.20">
        <lane id="I_E0_0" index="0" speed="13.89" length="87.57" width="3.83" shape="516.49,598.49 516.89,604.33 517.86,609.54 520.19,614.94 523.56,619.65 528.02,623.15 533.23,625.44 537.68,626.15 542.49,626.45 547.32,626.27 553.48,624.68 559.44,621.12 564.48,616.66 568.00,611.27 570.32,605.55 571.47,599.70 571.57,599.10"/>
    </edge>
    <edge id="I_E1" from="I_J1" to="I_J2" priority="-1">
        <lane id="I_E1_0" index="0" speed="13.89" length="45.12" width="3.83" acceleration="1" shape="571.82,595.82 571.83,550.70"/>
        <lane id="I_E1_1" index="1" speed="13.89" length="45.12" width="3.83" shape="575.65,595.82 575.66,550.70"/>
        <lane id="I_E1_2" index="2" speed="13.89" length="45.12" width="3.75" shape="579.44,595.82 579.45,550.70"/>
        <lane id="I_E1_3" index="3" disallow="truck" speed="13.89" length="45.12" width="3.40" shape="583.02,595.82 583.03,550.70"/>
    </edge>
    <edge id="I_E2" from="I_J2" to="I_J1" priority="-1" shape="584.73,546.70 584.75,142.28 584.66,138.41 584.51,135.29 584.30,132.35 584.20,130.30 584.00,128.25 583.76,126.07 583.38,123.30 583.04,121.35 582.73,119.10 582.23,116.69 581.70,113.98 581.10,111.45 580.45,108.55 579.62,105.42 578.79,102.66 578.18,100.70 577.20,97.86 576.17,94.69 574.70,91.00 573.28,87.76 571.69,84.17 569.66,79.96 567.64,76.28 565.23,72.12 563.14,68.68 560.57,64.84 558.47,61.77 556.08,58.58 553.48,55.40 550.13,51.54 548.52,49.68 545.84,46.86 543.40,44.44 540.83,41.97 537.82,39.30 533.61,35.67 529.97,32.86 525.79,29.86 522.30,27.47 517.76,24.73 513.25,22.08 508.13,19.44 504.35,17.69 500.01,15.80 496.38,14.37 490.42,12.18 486.09,10.94 481.44,9.58 476.70,8.52 471.42,7.39 466.44,6.72 462.00,6.06 456.69,5.57 451.25,5.47 444.27,5.38 442.59,5.39 438.72,5.41 434.42,5.47 428.67,5.41 422.91,5.40 416.47,5.47 412.91,5.46 407.39,5.45 401.34,5.47 147.40,5.41 143.44,5.41 141.37,5.44 139.06,5.52 132.12,5.86 128.18,6.21 125.91,6.51 123.56,6.83 119.68,7.35 116.73,7.96 114.02,8.48 110.56,9.24 107.01,10.17 103.44,11.15 99.66,12.34 96.09,13.59 93.02,14.69 89.66,16.10 86.26,17.53 82.27,19.50 78.29,21.47 75.87,22.78 72.77,24.55 69.83,26.28 66.80,28.33 64.19,30.18 60.88,32.52 57.92,34.66 54.22,37.67 51.71,39.91 48.64,42.77 45.14,46.23 41.76,49.68 40.00,51.64 37.86,54.14 35.91,56.47 34.20,58.61 32.03,61.56 29.63,64.91 27.79,67.72 26.13,70.06 24.48,72.86 22.77,75.94 21.22,78.66 19.68,81.97 17.98,85.34 16.47,88.56 15.14,91.85 14.07,94.76 12.98,97.77 11.77,101.48 10.58,105.46 9.52,109.50 8.71,113.24 7.81,117.33 7.07,121.52 6.54,125.88 6.03,130.36 5.65,135.25 5.53,139.29 5.45,143.65 5.43,148.34 5.43,153.14 5.50,156.95 5.51,384.18 5.53,386.86 5.69,389.74 5.77,392.41 6.01,395.36 6.30,397.68 6.62,400.82 7.25,404.45 7.77,407.46 8.38,410.59 9.12,413.92 9.98,417.72 11.14,421.54 12.13,424.80 13.21,427.99 14.10,430.39 15.39,433.86 16.49,436.36 17.50,438.83 19.04,442.06 20.14,444.01 21.42,446.67 22.93,449.56 24.72,452.61 26.94,456.30 29.06,459.53 32.34,464.13 35.64,468.49 39.75,473.36 43.52,477.50 47.38,481.40 50.78,484.50 54.54,487.86 58.84,491.16 63.26,494.47 66.30,496.60 68.91,498.27 71.47,499.87 74.23,501.55 77.63,503.54 80.44,505.34 83.04,507.17 85.49,508.77 88.32,510.96 92.68,514.24 95.04,516.16 97.43,518.35 99.68,520.33 101.86,522.42 103.65,524.09 104.97,525.60 107.37,527.96 109.07,529.82 111.34,532.53 112.86,534.30 115.31,537.40 116.82,539.35 118.89,542.22 120.85,544.93 122.96,548.27 125.12,551.71 127.43,555.65 128.55,557.81 130.05,560.82 131.57,563.83 132.87,566.58 134.48,570.31 135.31,572.48 136.69,576.02 137.71,578.61 138.65,581.79 140.07,586.58 141.26,591.55 142.27,595.54 143.07,599.28 143.57,602.60 144.05,605.97 144.47,609.72 144.86,613.51 145.04,615.93 145.19,619.34 145.32,623.78 145.25,629.12 145.16,631.43 145.00,634.79 144.69,638.46 144.35,641.64 143.83,645.23 143.25,648.84 142.73,651.84 142.16,654.86 141.44,657.87 140.74,660.66 139.94,663.53 139.25,665.85 137.40,671.77 136.38,674.55 135.34,677.38 134.35,679.83 133.20,682.47 132.29,684.44 131.06,686.89 129.67,689.75 128.58,691.84 127.41,694.09 126.26,696.09 124.86,698.51 123.44,700.84 122.02,703.46 120.69,705.75 119.27,708.30 117.87,710.62 116.49,712.96 115.49,714.82 114.42,716.60 113.02,719.03 88.91,760.82 87.51,763.23 86.31,765.50 85.03,768.11 83.82,770.42 82.46,773.20 81.14,776.28 80.38,778.19 79.14,781.46 77.91,784.87 76.62,788.65 75.65,791.80 74.71,795.48 73.81,799.11 73.18,802.43 72.42,805.62 72.01,808.67 71.53,811.69 71.20,814.38 70.95,817.62 70.64,820.78 70.52,823.02 70.41,825.49 70.33,828.96 70.42,832.11 70.49,835.09 70.63,837.49 70.82,840.82 71.08,843.98 71.45,846.77 71.74,849.39 72.36,852.94 72.95,855.92 73.51,859.02 74.24,862.11 75.16,865.41 76.04,868.82 76.90,871.45 77.75,874.04 78.83,877.01 79.75,879.49 80.93,882.45 82.17,885.34 83.63,888.41 84.98,891.34 86.61,894.40 88.05,896.95 89.49,899.42 90.85,901.88 92.31,904.17 93.56,906.05 95.25,908.48 97.25,911.19 98.53,912.99 100.55,915.49 102.82,918.30 104.93,920.67 106.73,922.72 108.98,925.07 110.71,926.74 113.10,929.15 114.96,930.93 117.26,933.01 119.62,934.98 121.58,936.55 124.25,938.63 125.97,939.95 128.22,941.61 129.93,942.83 132.63,944.62 134.31,945.66 136.65,947.14 139.09,948.56 142.04,950.22 145.99,952.23 148.52,953.67 151.35,954.98 154.43,956.18 157.31,957.36 160.37,958.55 163.22,959.55 165.34,960.28 168.09,961.05 170.72,961.79 173.33,962.53 176.21,963.30 178.84,963.80 181.73,964.40 184.51,964.93 186.83,965.29 189.83,965.75 192.19,966.01 194.66,966.23 198.33,966.60 201.26,966.72 205.98,966.89 210.24,966.98 437.11,966.86 440.30,966.87 442.26,966.88 445.42,966.83 447.63,966.85 450.40,966.81 453.00,966.76 456.46,966.55 458.81,966.40 461.18,966.22 463.86,965.92 466.13,965.63 468.48,965.20 471.42,964.76 474.04,964.27 476.63,963.69 479.35,963.08 482.08,962.44 485.39,961.54 488.66,960.57 490.62,959.86 492.84,959.17 494.62,958.50 496.35,957.88 497.60,957.43 499.34,956.68 501.66,955.72 504.35,954.53 508.34,952.68 510.85,951.37 513.07,950.24 515.69,948.71 517.96,947.35 519.99,946.13 521.64,945.12 523.92,943.63 526.29,941.97 528.87,940.16 530.97,938.57 532.35,937.56 535.34,935.15 537.34,933.43 539.30,931.62 541.22,929.88 543.08,928.19 544.82,926.38 546.34,924.88 547.71,923.37 548.78,922.25 550.31,920.45 551.85,918.82 553.28,917.20 554.64,915.40 556.44,913.08 558.55,910.18 560.48,907.51 561.86,905.44 563.20,903.27 564.63,901.15 565.70,899.35 566.49,898.10 567.32,896.62 568.47,894.41 569.39,892.65 570.33,890.91 571.06,889.44 571.96,887.51 572.75,885.66 573.48,884.06 574.33,881.98 575.29,879.79 576.06,877.68 576.92,875.21 577.95,872.41 578.70,869.71 579.61,866.79 580.38,863.71 581.15,860.58 581.70,858.03 582.25,855.57 582.69,853.19 583.25,850.02 583.54,847.99 583.81,845.27 584.08,843.24 584.39,839.52 584.54,836.42 584.65,834.30 584.68,831.92 584.73,828.62 584.71,825.58 584.73,823.17 584.68,820.43 584.70,817.08 584.74,800.55 584.71,797.58 584.72,595.17">
        <lane id="I_E2_0" index="0" speed="13.89" length="2758.43" width="3.83" shape="575.67,542.70 575.69,142.28 575.60,138.72 575.46,135.83 575.25,132.91 575.16,130.96 574.98,129.19 574.77,127.20 574.42,124.67 574.08,122.74 573.79,120.64 573.34,118.48 572.84,115.90 572.27,113.48 571.64,110.70 570.89,107.88 570.12,105.31 569.57,103.55 568.60,100.74 567.64,97.77 566.34,94.50 564.98,91.42 563.46,87.98 561.60,84.11 559.74,80.73 557.43,76.74 555.50,73.56 553.06,69.92 551.10,67.05 548.94,64.17 546.55,61.24 543.28,57.48 541.80,55.77 539.36,53.20 537.07,50.93 534.68,48.63 531.86,46.13 527.88,42.70 524.56,40.13 520.58,37.28 517.39,35.10 513.12,32.52 508.87,30.02 504.15,27.59 500.64,25.96 496.54,24.18 493.16,22.84 487.61,20.80 483.57,19.65 479.18,18.36 474.76,17.38 469.86,16.33 465.17,15.70 460.92,15.06 456.19,14.63 451.11,14.53 444.19,14.44 442.64,14.45 438.81,14.47 434.44,14.54 428.61,14.47 422.95,14.46 416.52,14.53 412.89,14.52 407.40,14.51 401.35,14.54 147.40,14.47 143.49,14.47 141.60,14.50 139.47,14.58 132.74,14.91 129.12,15.23 127.12,15.49 124.77,15.81 121.20,16.29 118.50,16.85 115.86,17.36 112.68,18.06 109.36,18.93 106.00,19.85 102.52,20.94 99.11,22.14 96.31,23.14 93.17,24.46 90.03,25.78 86.29,27.63 82.46,29.52 80.29,30.70 77.31,32.39 74.67,33.95 71.96,35.79 69.43,37.58 66.15,39.90 63.44,41.85 60.10,44.57 57.83,46.60 54.92,49.31 51.56,52.63 48.37,55.88 46.82,57.61 44.78,60.00 42.92,62.21 41.39,64.13 39.37,66.88 37.11,70.03 35.28,72.83 33.75,74.99 32.35,77.36 30.67,80.38 29.28,82.82 27.84,85.92 26.13,89.31 24.78,92.19 23.59,95.12 22.59,97.87 21.55,100.72 20.42,104.18 19.31,107.91 18.34,111.61 17.57,115.17 16.70,119.09 16.04,122.86 15.54,126.94 15.06,131.22 14.70,135.74 14.59,139.51 14.51,143.75 14.49,148.36 14.49,153.07 14.56,156.87 14.57,384.18 14.59,386.57 14.75,389.35 14.82,391.91 15.03,394.43 15.31,396.67 15.61,399.58 16.18,402.90 16.69,405.82 17.25,408.74 17.97,411.94 18.75,415.40 19.81,418.91 20.76,422.03 21.76,424.98 22.60,427.23 23.79,430.45 24.83,432.82 25.79,435.16 27.09,437.88 28.18,439.81 29.52,442.60 30.86,445.16 32.51,447.98 34.62,451.47 36.54,454.41 39.65,458.76 42.72,462.83 46.57,467.38 50.10,471.26 53.66,474.86 56.85,477.77 60.33,480.87 64.32,483.94 68.58,487.13 71.35,489.07 73.76,490.61 76.23,492.15 78.87,493.76 82.37,495.81 85.50,497.81 88.13,499.67 90.75,501.38 93.81,503.75 98.27,507.10 100.97,509.30 103.49,511.61 105.81,513.65 108.09,515.84 110.17,517.78 111.57,519.38 113.90,521.67 115.89,523.85 118.26,526.68 119.86,528.53 122.44,531.81 124.08,533.92 126.24,536.91 128.36,539.85 130.63,543.44 132.87,547.01 135.37,551.27 136.64,553.71 138.15,556.76 139.71,559.84 141.13,562.85 142.86,566.85 143.76,569.21 145.13,572.72 146.29,575.66 147.34,579.22 148.83,584.23 150.06,589.39 151.10,593.48 151.99,597.66 152.54,601.29 153.04,604.83 153.48,608.75 153.89,612.68 154.09,615.39 154.25,619.02 154.39,623.71 154.31,629.31 154.22,631.83 154.05,635.39 153.71,639.32 153.35,642.77 152.79,646.60 152.19,650.33 151.65,653.46 151.03,656.76 150.24,660.03 149.50,662.98 148.65,666.03 147.91,668.52 145.99,674.68 144.89,677.67 143.80,680.63 142.71,683.34 141.48,686.17 140.45,688.39 139.19,690.90 137.77,693.81 136.62,696.03 135.37,698.43 134.11,700.62 132.65,703.14 131.30,705.36 129.93,707.89 128.57,710.23 127.11,712.84 125.65,715.26 124.38,717.43 123.37,719.30 122.24,721.19 120.87,723.56 96.76,765.35 95.44,767.63 94.39,769.61 93.12,772.20 91.91,774.51 90.70,776.98 89.51,779.77 88.84,781.46 87.64,784.60 86.46,787.87 85.24,791.46 84.38,794.26 83.50,797.69 82.67,801.05 82.05,804.33 81.34,807.28 80.98,809.99 80.51,812.96 80.22,815.28 79.98,818.41 79.68,821.50 79.57,823.46 79.47,825.78 79.40,828.94 79.48,831.87 79.55,834.74 79.68,836.97 79.86,840.19 80.10,843.01 80.45,845.67 80.72,848.11 81.27,851.29 81.86,854.24 82.39,857.17 83.02,859.85 83.92,863.06 84.75,866.28 85.51,868.63 86.32,871.08 87.34,873.89 88.21,876.23 89.31,878.98 90.43,881.60 91.84,884.57 93.10,887.31 94.56,890.05 95.91,892.44 97.37,894.94 98.65,897.25 99.91,899.23 101.05,900.94 102.61,903.19 104.58,905.86 105.76,907.51 107.60,909.79 109.74,912.43 111.72,914.66 113.41,916.59 115.42,918.69 117.09,920.30 119.46,922.69 121.13,924.28 123.21,926.17 125.37,927.97 127.19,929.43 129.80,931.46 131.41,932.70 133.55,934.28 135.07,935.36 137.55,937.01 139.12,937.98 141.35,939.39 143.59,940.69 146.32,942.23 150.29,944.25 152.67,945.60 154.90,946.64 157.79,947.76 160.67,948.94 163.51,950.05 166.20,950.99 168.04,951.62 170.54,952.32 173.18,953.07 175.73,953.79 178.23,954.46 180.61,954.91 183.50,955.51 186.07,956.00 188.21,956.33 191.01,956.76 193.09,956.99 195.53,957.21 198.97,957.55 201.60,957.66 206.24,957.83 210.33,957.91 437.11,957.80 440.34,957.81 442.19,957.82 445.37,957.77 447.59,957.79 450.25,957.75 452.64,957.70 455.90,957.50 458.18,957.36 460.32,957.20 462.79,956.92 464.74,956.67 467.01,956.26 469.92,955.82 472.22,955.39 474.65,954.84 477.32,954.24 479.86,953.65 482.91,952.82 485.82,951.96 487.73,951.27 489.90,950.59 491.49,949.99 493.29,949.35 494.27,949.00 495.82,948.33 498.09,947.39 500.60,946.28 504.33,944.55 506.69,943.31 508.72,942.28 511.08,940.91 513.30,939.58 515.29,938.38 516.77,937.47 518.84,936.12 521.09,934.55 523.54,932.83 525.54,931.31 526.83,930.37 529.56,928.17 531.31,926.66 533.18,924.93 535.13,923.17 536.76,921.69 538.36,920.02 539.79,918.60 541.06,917.20 542.04,916.18 543.56,914.40 545.16,912.70 546.26,911.46 547.45,909.88 549.19,907.63 551.21,904.86 553.05,902.32 554.23,900.55 555.58,898.35 556.97,896.30 557.96,894.63 558.69,893.47 559.33,892.33 560.43,890.22 561.39,888.40 562.29,886.73 562.89,885.52 563.68,883.81 564.45,882.01 565.15,880.48 565.98,878.44 566.87,876.41 567.52,874.64 568.39,872.15 569.31,869.63 570.01,867.14 570.88,864.34 571.58,861.53 572.32,858.53 572.85,856.09 573.37,853.75 573.77,851.58 574.30,848.56 574.54,846.90 574.80,844.25 575.06,842.27 575.34,838.92 575.49,835.97 575.59,834.02 575.62,831.79 575.67,828.58 575.64,825.58 575.67,823.22 575.62,820.47 575.64,817.05 575.68,800.55 575.64,797.63 575.65,599.12"/>
        <lane id="I_E2_1" index="1" speed="13.89" length="2758.43" width="3.75" shape="579.46,542.70 579.48,142.28 579.39,138.59 579.24,135.60 579.04,132.68 578.94,130.68 578.75,128.80 578.53,126.73 578.17,124.10 577.83,122.16 577.53,120.00 577.06,117.73 576.54,115.10 575.96,112.63 575.33,109.80 574.54,106.85 573.74,104.20 573.17,102.36 572.20,99.53 571.21,96.48 569.83,93.04 568.45,89.89 566.90,86.38 564.97,82.38 563.05,78.87 560.69,74.81 558.69,71.52 556.20,67.79 554.18,64.84 551.93,61.83 549.45,58.80 546.14,55.00 544.61,53.23 542.07,50.55 539.72,48.21 537.25,45.85 534.35,43.27 530.27,39.76 526.82,37.09 522.76,34.18 519.44,31.91 515.06,29.26 510.70,26.70 505.81,24.18 502.19,22.50 497.99,20.67 494.50,19.30 488.78,17.20 484.62,16.01 480.12,14.69 475.57,13.67 470.52,12.59 465.70,11.94 461.37,11.30 456.40,10.84 451.17,10.74 444.22,10.65 442.62,10.66 438.77,10.68 434.43,10.75 428.64,10.68 422.94,10.67 416.50,10.74 412.90,10.73 407.39,10.72 401.35,10.75 147.40,10.68 143.47,10.68 141.50,10.71 139.30,10.79 132.48,11.12 128.73,11.46 126.61,11.74 124.26,12.06 120.57,12.55 117.76,13.13 115.09,13.65 111.79,14.37 108.38,15.26 104.93,16.21 101.32,17.35 97.85,18.56 94.93,19.61 91.70,20.96 88.45,22.33 84.61,24.23 80.72,26.15 78.44,27.39 75.41,29.11 72.65,30.74 69.80,32.67 67.24,34.49 63.95,36.81 61.13,38.85 57.64,41.69 55.27,43.80 52.29,46.58 48.88,49.95 45.61,53.29 43.97,55.11 41.89,57.55 39.99,59.81 38.39,61.82 36.30,64.66 33.98,67.89 32.15,70.69 30.56,72.93 29.06,75.48 27.37,78.52 25.91,81.08 24.43,84.27 22.72,87.65 21.31,90.67 20.06,93.75 19.03,96.57 17.97,99.49 16.81,103.05 15.66,106.89 14.65,110.73 13.86,114.37 12.99,118.36 12.29,122.30 11.78,126.50 11.28,130.86 10.92,135.53 10.80,139.42 10.72,143.71 10.70,148.35 10.70,153.10 10.77,156.90 10.78,384.18 10.80,386.69 10.96,389.51 11.04,392.12 11.26,394.82 11.54,397.09 11.85,400.10 12.45,403.55 12.96,406.51 13.54,409.51 14.27,412.76 15.08,416.37 16.19,420.01 17.15,423.19 18.19,426.24 19.04,428.55 20.28,431.88 21.35,434.30 22.33,436.69 23.72,439.63 24.82,441.57 26.14,444.30 27.55,447.00 29.25,449.91 31.41,453.49 33.41,456.55 36.59,461.01 39.76,465.19 43.72,469.88 47.35,473.87 51.03,477.59 54.31,480.58 57.91,483.80 62.03,486.96 66.36,490.20 69.24,492.22 71.73,493.81 74.24,495.38 76.93,497.02 80.39,499.04 83.38,500.96 86.00,502.80 88.55,504.47 91.51,506.76 95.93,510.08 98.49,512.17 100.96,514.43 103.25,516.44 105.49,518.59 107.44,520.42 108.81,521.98 111.17,524.30 113.04,526.35 115.37,529.12 116.93,530.94 119.46,534.14 121.05,536.19 123.17,539.13 125.22,541.97 127.42,545.46 129.63,548.97 132.05,553.10 133.26,555.43 134.76,558.45 136.31,561.51 137.68,564.41 139.35,568.29 140.23,570.58 141.60,574.10 142.70,576.89 143.71,580.29 145.17,585.22 146.38,590.29 147.41,594.34 148.26,598.33 148.79,601.84 149.28,605.30 149.71,609.16 150.11,613.03 150.31,615.62 150.46,619.15 150.60,623.74 150.52,629.23 150.43,631.66 150.26,635.14 149.94,638.96 149.58,642.30 149.04,646.03 148.45,649.71 147.92,652.78 147.32,655.96 146.56,659.12 145.84,662.01 145.01,664.99 144.29,667.40 142.40,673.47 141.33,676.37 140.26,679.27 139.21,681.87 138.02,684.62 137.04,686.74 135.79,689.22 134.39,692.11 133.26,694.28 132.04,696.62 130.83,698.73 129.40,701.20 128.01,703.47 126.62,706.04 125.28,708.36 123.83,710.94 122.40,713.32 121.08,715.56 120.08,717.43 118.97,719.27 117.59,721.67 93.48,763.46 92.12,765.79 91.01,767.89 89.74,770.49 88.53,772.80 87.26,775.40 86.01,778.31 85.30,780.09 84.09,783.29 82.89,786.61 81.64,790.29 80.73,793.23 79.83,796.77 78.97,800.24 78.34,803.53 77.61,806.59 77.23,809.44 76.75,812.43 76.45,814.90 76.20,818.08 75.90,821.20 75.79,823.28 75.68,825.66 75.61,828.95 75.69,831.97 75.76,834.88 75.90,837.19 76.08,840.46 76.33,843.42 76.69,846.13 76.96,848.65 77.55,851.98 78.13,854.94 78.68,857.94 79.35,860.79 80.25,864.04 81.11,867.34 81.91,869.81 82.74,872.32 83.78,875.19 84.67,877.59 85.80,880.43 86.98,883.17 88.41,886.17 89.71,888.99 91.24,891.87 92.63,894.33 94.08,896.81 95.39,899.18 96.73,901.30 97.92,903.08 99.54,905.40 101.52,908.09 102.73,909.80 104.65,912.17 106.84,914.89 108.88,917.17 110.62,919.15 112.73,921.36 114.42,922.99 116.80,925.39 118.55,927.06 120.72,929.03 122.96,930.90 124.85,932.41 127.48,934.46 129.14,935.73 131.32,937.34 132.92,938.48 135.49,940.19 137.11,941.19 139.39,942.63 141.71,943.98 144.53,945.57 148.49,947.58 150.94,948.98 153.42,950.12 156.39,951.28 159.26,952.46 162.20,953.60 164.95,954.57 166.91,955.24 169.52,955.97 172.15,956.71 174.73,957.44 177.39,958.15 179.87,958.63 182.76,959.23 185.42,959.73 187.63,960.08 190.52,960.52 192.71,960.76 195.16,960.98 198.70,961.34 201.46,961.45 206.13,961.62 210.29,961.70 437.11,961.59 440.32,961.60 442.22,961.61 445.39,961.56 447.61,961.58 450.31,961.54 452.79,961.49 456.13,961.29 458.44,961.14 460.68,960.97 463.24,960.68 465.32,960.42 467.62,959.99 470.55,959.56 472.98,959.10 475.48,958.54 478.17,957.94 480.79,957.33 483.95,956.47 487.01,955.56 488.94,954.86 491.13,954.18 492.80,953.55 494.57,952.92 495.66,952.52 497.29,951.82 499.58,950.87 502.17,949.73 506.01,947.95 508.43,946.68 510.54,945.61 513.01,944.17 515.25,942.83 517.26,941.62 518.81,940.67 520.96,939.26 523.26,937.65 525.77,935.89 527.81,934.34 529.14,933.38 531.98,931.09 533.83,929.49 535.74,927.73 537.68,925.97 539.40,924.41 541.06,922.68 542.53,921.23 543.84,919.78 544.86,918.72 546.38,916.93 547.96,915.26 549.19,913.86 550.45,912.19 552.22,909.91 554.28,907.08 556.16,904.49 557.42,902.59 558.77,900.41 560.17,898.33 561.20,896.60 561.95,895.41 562.67,894.13 563.79,891.97 564.73,890.17 565.65,888.48 566.30,887.16 567.14,885.36 567.92,883.53 568.63,881.98 569.47,879.92 570.39,877.82 571.09,875.91 571.95,873.43 572.93,870.79 573.64,868.22 574.53,865.36 575.26,862.44 576.01,859.39 576.55,856.90 577.08,854.51 577.50,852.25 578.04,849.17 578.30,847.36 578.57,844.67 578.83,842.67 579.13,839.17 579.27,836.16 579.38,834.14 579.41,831.85 579.46,828.60 579.44,825.58 579.46,823.20 579.41,820.46 579.43,817.06 579.47,800.55 579.43,797.61 579.44,599.12"/>
        <lane id="I_E2_2" index="2" disallow="truck" speed="13.89" length="2758.43" width="3.40" shape="583.03,542.70 583.05,142.28 582.96,138.47 582.81,135.39 582.60,132.46 582.50,130.42 582.31,128.43 582.07,126.28 581.70,123.56 581.36,121.61 581.05,119.39 580.56,117.03 580.04,114.34 579.44,111.83 578.80,108.95 577.98,105.88 577.16,103.16 576.57,101.23 575.59,98.40 574.57,95.27 573.13,91.66 571.72,88.45 570.15,84.88 568.15,80.74 566.16,77.12 563.77,72.99 561.71,69.59 559.16,65.79 557.09,62.76 554.74,59.63 552.18,56.50 548.85,52.65 547.26,50.82 544.63,48.05 542.21,45.66 539.68,43.22 536.70,40.58 532.53,36.99 528.95,34.22 524.81,31.25 521.38,28.90 516.89,26.19 512.43,23.57 507.38,20.97 503.65,19.24 499.36,17.37 495.78,15.96 489.89,13.80 485.62,12.57 481.02,11.23 476.34,10.18 471.13,9.07 466.20,8.40 461.80,7.75 456.60,7.27 451.22,7.17 444.25,7.08 442.60,7.09 438.74,7.11 434.42,7.17 428.66,7.11 422.92,7.10 416.48,7.17 412.91,7.16 407.39,7.15 401.34,7.17 147.40,7.11 143.45,7.11 141.41,7.14 139.14,7.22 132.24,7.56 128.36,7.90 126.14,8.19 123.79,8.51 119.97,9.03 117.06,9.63 114.37,10.14 110.96,10.89 107.45,11.81 103.92,12.78 100.20,13.95 96.66,15.19 93.64,16.28 90.32,17.67 86.97,19.08 83.02,21.02 79.07,22.98 76.70,24.26 73.62,26.02 70.74,27.72 67.77,29.73 65.17,31.57 61.87,33.90 58.96,36.01 55.32,38.96 52.86,41.16 49.82,44.00 46.34,47.43 43.00,50.84 41.28,52.76 39.16,55.24 37.23,57.55 35.55,59.64 33.41,62.56 31.03,65.87 29.19,68.68 27.56,70.98 25.96,73.70 24.25,76.77 22.73,79.44 21.21,82.71 19.51,86.08 18.03,89.24 16.73,92.46 15.67,95.34 14.59,98.32 13.39,101.99 12.22,105.92 11.17,109.90 10.37,113.60 9.48,117.66 8.75,121.77 8.23,126.08 7.72,130.52 7.35,135.34 7.23,139.33 7.15,143.67 7.13,148.34 7.13,153.13 7.20,156.93 7.21,384.18 7.23,386.81 7.39,389.67 7.47,392.32 7.70,395.19 7.99,397.49 8.31,400.59 8.93,404.16 9.44,407.15 10.04,410.24 10.78,413.55 11.62,417.28 12.77,421.05 13.75,424.28 14.81,427.42 15.69,429.80 16.97,433.22 18.05,435.70 19.06,438.14 20.55,441.28 21.65,443.22 22.94,445.91 24.42,448.74 26.18,451.74 28.38,455.40 30.46,458.57 33.71,463.12 36.97,467.43 41.03,472.24 44.75,476.33 48.56,480.17 51.92,483.24 55.63,486.55 59.87,489.81 64.26,493.09 67.25,495.19 69.82,496.83 72.36,498.42 75.10,500.09 78.52,502.09 81.39,503.93 83.99,505.76 86.48,507.38 89.35,509.61 93.73,512.90 96.15,514.87 98.57,517.09 100.83,519.08 103.03,521.19 104.87,522.91 106.21,524.43 108.59,526.78 110.35,528.70 112.64,531.43 114.17,533.22 116.65,536.35 118.18,538.33 120.27,541.22 122.26,543.98 124.40,547.36 126.57,550.83 128.92,554.83 130.07,557.04 131.57,560.06 133.10,563.08 134.42,565.88 136.05,569.66 136.90,571.87 138.27,575.40 139.32,578.06 140.28,581.31 141.71,586.14 142.91,591.14 143.93,595.15 144.74,598.98 145.25,602.35 145.74,605.76 146.16,609.54 146.55,613.35 146.74,615.83 146.89,619.28 147.02,623.77 146.95,629.16 146.86,631.50 146.70,634.90 146.38,638.62 146.04,641.85 145.51,645.49 144.93,649.12 144.40,652.14 143.82,655.22 143.09,658.27 142.38,661.10 141.57,664.00 140.87,666.35 139.01,672.32 137.98,675.14 136.93,677.99 135.92,680.49 134.75,683.16 133.82,685.18 132.58,687.64 131.19,690.51 130.09,692.63 128.90,694.90 127.73,696.94 126.32,699.38 124.91,701.69 123.50,704.29 122.17,706.59 120.74,709.15 119.33,711.49 117.97,713.80 116.97,715.66 115.89,717.46 114.49,719.88 90.38,761.67 89.00,764.05 87.83,766.27 86.55,768.88 85.34,771.19 84.01,773.91 82.71,776.93 81.97,778.80 80.73,782.05 79.51,785.43 78.24,789.18 77.29,792.26 76.36,795.89 75.47,799.47 74.84,802.79 74.09,805.93 73.69,808.92 73.21,811.93 72.89,814.55 72.64,817.77 72.33,820.91 72.22,823.10 72.11,825.54 72.03,828.96 72.12,832.07 72.19,835.02 72.33,837.39 72.52,840.70 72.77,843.80 73.14,846.56 73.42,849.15 74.03,852.63 74.62,855.60 75.17,858.67 75.89,861.69 76.80,864.97 77.67,868.34 78.52,870.92 79.36,873.48 80.43,876.42 81.34,878.88 82.50,881.80 83.72,884.64 85.17,887.69 86.50,890.58 88.10,893.58 89.52,896.10 90.97,898.58 92.31,901.01 93.74,903.24 94.96,905.09 96.63,907.49 98.62,910.19 99.89,911.96 101.87,914.42 104.12,917.20 106.20,919.54 107.98,921.57 110.19,923.87 111.91,925.53 114.29,927.94 116.12,929.68 118.38,931.73 120.70,933.67 122.63,935.21 125.29,937.29 126.99,938.59 129.22,940.24 130.89,941.43 133.55,943.19 135.21,944.22 137.53,945.69 139.93,947.08 142.84,948.72 146.80,950.73 149.30,952.16 152.02,953.42 155.06,954.60 157.94,955.78 160.96,956.96 163.78,957.94 165.85,958.66 168.55,959.41 171.18,960.15 173.78,960.89 176.59,961.64 179.17,962.13 182.06,962.73 184.80,963.26 187.09,963.61 190.05,964.06 192.36,964.32 194.82,964.54 198.45,964.90 201.32,965.02 206.03,965.19 210.26,965.28 437.11,965.16 440.31,965.17 442.25,965.18 445.41,965.13 447.62,965.15 450.37,965.11 452.93,965.06 456.35,964.85 458.69,964.70 461.02,964.53 463.66,964.23 465.87,963.95 468.20,963.52 471.14,963.08 473.70,962.60 476.26,962.03 478.97,961.42 481.66,960.79 484.93,959.90 488.13,958.95 490.08,958.25 492.29,957.56 494.03,956.90 495.78,956.28 496.98,955.85 498.68,955.11 500.99,954.16 503.65,952.98 507.59,951.15 510.07,949.86 512.26,948.75 514.83,947.25 517.09,945.89 519.11,944.68 520.73,943.69 522.97,942.22 525.31,940.58 527.87,938.78 529.95,937.21 531.31,936.21 534.26,933.84 536.21,932.16 538.15,930.37 540.08,928.62 541.89,926.97 543.61,925.19 545.11,923.70 546.46,922.21 547.52,921.11 549.04,919.31 550.60,917.67 551.96,916.12 553.29,914.37 555.08,912.06 557.17,909.18 559.09,906.54 560.43,904.52 561.77,902.35 563.19,900.24 564.25,898.46 565.03,897.23 565.82,895.82 566.96,893.62 567.89,891.85 568.82,890.13 569.53,888.71 570.41,886.82 571.19,884.97 571.92,883.39 572.76,881.32 573.71,879.16 574.46,877.11 575.32,874.64 576.33,871.89 577.07,869.23 577.97,866.33 578.73,863.30 579.49,860.20 580.04,857.67 580.58,855.23 581.02,852.89 581.57,849.75 581.85,847.79 582.12,845.08 582.39,843.06 582.69,839.41 582.84,836.34 582.95,834.25 582.98,831.90 583.03,828.61 583.01,825.58 583.03,823.18 582.98,820.44 583.00,817.07 583.04,800.55 583.01,797.59 583.02,599.12"/>
    </edge>
    <edge id="O_E0" from="O_J0" to="O_J1" priority="-1" shape="660.40,701.03,-0.30 659.98,694.94 659.00,689.44 656.45,683.69 652.92,678.65 648.04,674.63 642.37,672.17 637.24,671.39 632.60,670.95 627.46,671.45 620.50,673.04 614.34,676.52 608.83,681.56 605.12,687.32 602.55,693.74 601.44,699.42 601.14,704.61">
        <lane id="O_E0_0" index="0" speed="13.89" length="90.65" width="3.83" shape="658.49,701.16,-0.30 658.08,695.17 657.16,690.00 654.77,684.64 651.50,679.96 647.03,676.28 641.84,674.03 637.01,673.29 632.60,672.87 627.77,673.34 621.20,674.84 615.47,678.08 610.31,682.81 606.83,688.20 604.39,694.28 603.34,699.66 603.15,703.08"/>
    </edge>
    <edge id="O_E1" from="O_J1" to="O_J2" priority="-1">
        <lane id="O_E1_0" index="0" speed="13.89" length="42.34" width="3.83" acceleration="1" shape="603.09,706.08 603.09,748.42"/>
        <lane id="O_E1_1" index="1" speed="13.89" length="42.34" width="3.83" shape="599.26,706.08 599.26,748.42"/>
        <lane id="O_E1_2" index="2" speed="13.89" length="42.34" width="3.75" shape="595.47,706.08 595.47,748.42"/>